*SPEF "ieee 1481-1999"
*DESIGN "updown_counter"
*DATE "08:47:39 Thursday March 13, 2025"
*VENDOR "The OpenROAD Project"
*PROGRAM "OpenROAD"
*VERSION "v2.0-17598-ga008522d8"
*DESIGN_FLOW "NAME_SCOPE LOCAL" "PIN_CAP NONE"
*DIVIDER /
*DELIMITER :
*BUS_DELIMITER []
*T_UNIT 1 NS
*C_UNIT 1 PF
*R_UNIT 1 OHM
*L_UNIT 1 HENRY

*NAME_MAP
*1 _00_
*2 _01_
*3 _02_
*4 _03_
*5 _04_
*6 _05_
*7 _06_
*8 _07_
*9 _08_
*10 _09_
*11 _10_
*12 _11_
*13 _12_
*14 _13_
*15 _14_
*16 _15_
*17 _16_
*18 _17_
*19 _18_
*20 _19_
*21 _20_
*22 i_clk
*23 i_rst
*24 i_up_down
*25 net3
*26 net4
*27 net5
*28 net6
*31 net1
*32 net2
*33 o_count[0]
*34 o_count[1]
*35 o_count[2]
*36 o_count[3]
*37 _21_
*38 _22_
*39 _23_
*40 _24_
*41 _25_
*42 _26_
*43 _27_
*44 _28_
*45 _29_
*46 _30_
*47 _31_
*48 _32_
*49 _33_
*50 _34_
*51 _35_
*52 _36_
*53 _37_
*54 o_count\[0\]\$_SDFF_PP0_
*55 o_count\[1\]\$_SDFF_PP0_
*56 o_count\[2\]\$_SDFF_PP0_
*57 o_count\[3\]\$_SDFF_PP0_
*58 PHY_EDGE_ROW_0_Right_0
*59 PHY_EDGE_ROW_1_Right_1
*60 PHY_EDGE_ROW_2_Right_2
*61 PHY_EDGE_ROW_3_Right_3
*62 PHY_EDGE_ROW_4_Right_4
*63 PHY_EDGE_ROW_5_Right_5
*64 PHY_EDGE_ROW_6_Right_6
*65 PHY_EDGE_ROW_7_Right_7
*66 PHY_EDGE_ROW_8_Right_8
*67 PHY_EDGE_ROW_9_Right_9
*68 PHY_EDGE_ROW_10_Right_10
*69 PHY_EDGE_ROW_11_Right_11
*70 PHY_EDGE_ROW_12_Right_12
*71 PHY_EDGE_ROW_13_Right_13
*72 PHY_EDGE_ROW_14_Right_14
*73 PHY_EDGE_ROW_15_Right_15
*74 PHY_EDGE_ROW_16_Right_16
*75 PHY_EDGE_ROW_17_Right_17
*76 PHY_EDGE_ROW_18_Right_18
*77 PHY_EDGE_ROW_19_Right_19
*78 PHY_EDGE_ROW_20_Right_20
*79 PHY_EDGE_ROW_21_Right_21
*80 PHY_EDGE_ROW_22_Right_22
*81 PHY_EDGE_ROW_23_Right_23
*82 PHY_EDGE_ROW_0_Left_24
*83 PHY_EDGE_ROW_1_Left_25
*84 PHY_EDGE_ROW_2_Left_26
*85 PHY_EDGE_ROW_3_Left_27
*86 PHY_EDGE_ROW_4_Left_28
*87 PHY_EDGE_ROW_5_Left_29
*88 PHY_EDGE_ROW_6_Left_30
*89 PHY_EDGE_ROW_7_Left_31
*90 PHY_EDGE_ROW_8_Left_32
*91 PHY_EDGE_ROW_9_Left_33
*92 PHY_EDGE_ROW_10_Left_34
*93 PHY_EDGE_ROW_11_Left_35
*94 PHY_EDGE_ROW_12_Left_36
*95 PHY_EDGE_ROW_13_Left_37
*96 PHY_EDGE_ROW_14_Left_38
*97 PHY_EDGE_ROW_15_Left_39
*98 PHY_EDGE_ROW_16_Left_40
*99 PHY_EDGE_ROW_17_Left_41
*100 PHY_EDGE_ROW_18_Left_42
*101 PHY_EDGE_ROW_19_Left_43
*102 PHY_EDGE_ROW_20_Left_44
*103 PHY_EDGE_ROW_21_Left_45
*104 PHY_EDGE_ROW_22_Left_46
*105 PHY_EDGE_ROW_23_Left_47
*106 input1
*107 input2
*108 output3
*109 output4
*110 output5
*111 output6
*112 FILLER_0_1
*113 FILLER_0_33
*114 FILLER_0_65
*115 FILLER_0_73
*116 FILLER_0_80
*117 FILLER_0_112
*118 FILLER_0_144
*119 FILLER_0_176
*120 FILLER_0_180
*121 FILLER_1_1
*122 FILLER_1_33
*123 FILLER_1_65
*124 FILLER_1_97
*125 FILLER_1_129
*126 FILLER_1_161
*127 FILLER_1_177
*128 FILLER_1_181
*129 FILLER_2_1
*130 FILLER_2_33
*131 FILLER_2_65
*132 FILLER_2_97
*133 FILLER_2_129
*134 FILLER_2_161
*135 FILLER_2_177
*136 FILLER_2_181
*137 FILLER_3_1
*138 FILLER_3_33
*139 FILLER_3_65
*140 FILLER_3_97
*141 FILLER_3_129
*142 FILLER_3_161
*143 FILLER_3_177
*144 FILLER_3_181
*145 FILLER_4_1
*146 FILLER_4_33
*147 FILLER_4_65
*148 FILLER_4_97
*149 FILLER_4_129
*150 FILLER_4_161
*151 FILLER_4_177
*152 FILLER_4_181
*153 FILLER_5_1
*154 FILLER_5_33
*155 FILLER_5_65
*156 FILLER_5_73
*157 FILLER_5_84
*158 FILLER_5_116
*159 FILLER_5_148
*160 FILLER_5_180
*161 FILLER_6_1
*162 FILLER_6_33
*163 FILLER_6_65
*164 FILLER_6_97
*165 FILLER_6_129
*166 FILLER_6_161
*167 FILLER_6_177
*168 FILLER_6_181
*169 FILLER_7_1
*170 FILLER_7_33
*171 FILLER_7_65
*172 FILLER_7_73
*173 FILLER_7_77
*174 FILLER_7_79
*175 FILLER_7_84
*176 FILLER_7_116
*177 FILLER_7_148
*178 FILLER_7_180
*179 FILLER_8_1
*180 FILLER_8_33
*181 FILLER_8_65
*182 FILLER_8_73
*183 FILLER_8_91
*184 FILLER_8_107
*185 FILLER_8_115
*186 FILLER_8_117
*187 FILLER_8_123
*188 FILLER_8_132
*189 FILLER_8_140
*190 FILLER_8_149
*191 FILLER_8_157
*192 FILLER_8_164
*193 FILLER_8_180
*194 FILLER_9_1
*195 FILLER_9_33
*196 FILLER_9_65
*197 FILLER_9_73
*198 FILLER_9_77
*199 FILLER_9_79
*200 FILLER_9_86
*201 FILLER_9_118
*202 FILLER_9_122
*203 FILLER_9_124
*204 FILLER_9_129
*205 FILLER_9_137
*206 FILLER_9_141
*207 FILLER_9_143
*208 FILLER_9_161
*209 FILLER_9_165
*210 FILLER_9_167
*211 FILLER_9_171
*212 FILLER_9_179
*213 FILLER_9_181
*214 FILLER_10_1
*215 FILLER_10_33
*216 FILLER_10_65
*217 FILLER_10_97
*218 FILLER_10_113
*219 FILLER_10_117
*220 FILLER_10_124
*221 FILLER_10_134
*222 FILLER_10_166
*223 FILLER_11_1
*224 FILLER_11_33
*225 FILLER_11_65
*226 FILLER_11_97
*227 FILLER_11_129
*228 FILLER_11_161
*229 FILLER_11_177
*230 FILLER_11_181
*231 FILLER_12_1
*232 FILLER_12_33
*233 FILLER_12_65
*234 FILLER_12_87
*235 FILLER_12_119
*236 FILLER_12_135
*237 FILLER_12_144
*238 FILLER_12_176
*239 FILLER_12_180
*240 FILLER_13_1
*241 FILLER_13_33
*242 FILLER_13_65
*243 FILLER_13_73
*244 FILLER_13_79
*245 FILLER_13_111
*246 FILLER_13_127
*247 FILLER_13_135
*248 FILLER_13_137
*249 FILLER_13_142
*250 FILLER_13_151
*251 FILLER_13_167
*252 FILLER_13_175
*253 FILLER_13_179
*254 FILLER_13_181
*255 FILLER_14_1
*256 FILLER_14_9
*257 FILLER_14_11
*258 FILLER_14_15
*259 FILLER_14_47
*260 FILLER_14_63
*261 FILLER_14_71
*262 FILLER_14_76
*263 FILLER_14_80
*264 FILLER_14_82
*265 FILLER_14_87
*266 FILLER_14_119
*267 FILLER_14_151
*268 FILLER_14_155
*269 FILLER_14_173
*270 FILLER_14_181
*271 FILLER_15_1
*272 FILLER_15_33
*273 FILLER_15_65
*274 FILLER_15_69
*275 FILLER_15_87
*276 FILLER_15_119
*277 FILLER_15_151
*278 FILLER_15_167
*279 FILLER_15_178
*280 FILLER_16_1
*281 FILLER_16_33
*282 FILLER_16_65
*283 FILLER_16_97
*284 FILLER_16_129
*285 FILLER_16_161
*286 FILLER_16_177
*287 FILLER_16_181
*288 FILLER_17_1
*289 FILLER_17_33
*290 FILLER_17_65
*291 FILLER_17_97
*292 FILLER_17_129
*293 FILLER_17_161
*294 FILLER_17_177
*295 FILLER_17_181
*296 FILLER_18_1
*297 FILLER_18_33
*298 FILLER_18_65
*299 FILLER_18_97
*300 FILLER_18_129
*301 FILLER_18_161
*302 FILLER_18_177
*303 FILLER_18_181
*304 FILLER_19_1
*305 FILLER_19_33
*306 FILLER_19_65
*307 FILLER_19_97
*308 FILLER_19_129
*309 FILLER_19_161
*310 FILLER_19_177
*311 FILLER_19_181
*312 FILLER_20_1
*313 FILLER_20_33
*314 FILLER_20_65
*315 FILLER_20_97
*316 FILLER_20_129
*317 FILLER_20_161
*318 FILLER_20_177
*319 FILLER_20_181
*320 FILLER_21_1
*321 FILLER_21_33
*322 FILLER_21_65
*323 FILLER_21_97
*324 FILLER_21_129
*325 FILLER_21_161
*326 FILLER_21_177
*327 FILLER_21_181
*328 FILLER_22_1
*329 FILLER_22_33
*330 FILLER_22_65
*331 FILLER_22_97
*332 FILLER_22_129
*333 FILLER_22_161
*334 FILLER_22_177
*335 FILLER_22_181
*336 FILLER_23_1
*337 FILLER_23_33
*338 FILLER_23_65
*339 FILLER_23_73
*340 FILLER_23_77
*341 FILLER_23_109
*342 FILLER_23_141
*343 FILLER_23_173
*344 FILLER_23_181

*PORTS
i_clk I
i_rst I
i_up_down I
o_count[0] O
o_count[1] O
o_count[2] O
o_count[3] O

*D_NET *1 0.000441672
*CONN
*I *41:B I *D XOR2_X1
*I *38:A1 I *D AND2_X1
*I *54:QN O *D DFF_X1
*CAP
1 *41:B 4.42319e-05
2 *38:A1 4.50468e-05
3 *54:QN 1.44448e-05
4 *1:8 0.000103724
5 *38:A1 *38:A2 1.19142e-05
6 *38:A1 *8:14 3.81999e-05
7 *38:A1 *25:16 5.53343e-05
8 *38:A1 *31:24 5.56142e-06
9 *41:B *38:A2 6.0406e-05
10 *1:8 *25:16 5.12453e-05
11 *1:8 *31:24 1.15635e-05
*RES
1 *54:QN *1:8 12.9643 
2 *1:8 *38:A1 16.7143 
3 *1:8 *41:B 15.75 
*END

*D_NET *2 0.000180732
*CONN
*I *54:D I *D DFF_X1
*I *38:ZN O *D AND2_X1
*CAP
1 *54:D 5.90238e-05
2 *38:ZN 5.90238e-05
3 *54:D *8:14 3.28714e-05
4 *54:D *25:16 2.98125e-05
*RES
1 *38:ZN *54:D 26.8929 
*END

*D_NET *3 9.55967e-05
*CONN
*I *55:D I *D DFF_X1
*I *43:ZN O *D NOR2_X1
*CAP
1 *55:D 4.77983e-05
2 *43:ZN 4.77983e-05
3 *55:D *31:43 0
*RES
1 *43:ZN *55:D 14.75 
*END

*D_NET *4 7.683e-05
*CONN
*I *56:D I *D DFF_X1
*I *48:ZN O *D AND3_X1
*CAP
1 *56:D 3.13888e-05
2 *48:ZN 3.13888e-05
3 *56:D *48:A1 7.02617e-06
4 *56:D *56:CK 1.27666e-06
5 *56:D *31:20 5.74951e-06
*RES
1 *48:ZN *56:D 13.75 
*END

*D_NET *5 0.000202999
*CONN
*I *57:D I *D DFF_X1
*I *53:ZN O *D AND3_X1
*CAP
1 *57:D 8.34581e-05
2 *53:ZN 8.34581e-05
3 *57:D *57:CK 4.79658e-06
4 *57:D *28:12 3.1286e-05
*RES
1 *53:ZN *57:D 30.2857 
*END

*D_NET *6 0.00227599
*CONN
*I *53:A1 I *D AND3_X1
*I *48:A1 I *D AND3_X1
*I *38:A2 I *D AND2_X1
*I *37:ZN O *D INV_X1
*CAP
1 *53:A1 3.12568e-05
2 *48:A1 0.000240311
3 *38:A2 0.000236327
4 *37:ZN 2.5607e-05
5 *6:39 0.000683219
6 *6:8 0.000673585
7 *38:A2 *42:A 8.26038e-06
8 *38:A2 *42:B 6.11143e-05
9 *38:A2 *54:CK 7.72537e-06
10 *38:A2 *7:8 2.87703e-06
11 *38:A2 *8:14 4.16588e-06
12 *38:A2 *8:25 1.01609e-05
13 *38:A2 *31:43 0.000119246
14 *48:A1 *48:A2 2.39679e-06
15 *48:A1 *51:A1 6.48216e-07
16 *48:A1 *51:A3 1.40196e-06
17 *48:A1 *52:B1 4.79202e-06
18 *48:A1 *53:A2 2.83081e-06
19 *48:A1 *31:20 0
20 *53:A1 *51:A1 2.30024e-06
21 *53:A1 *53:A2 2.51631e-06
22 *6:8 *43:A2 0
23 *6:39 *42:A 0
24 *6:39 *43:A2 0
25 *6:39 *51:A1 2.14847e-05
26 *6:39 *53:A2 2.65899e-06
27 *6:39 *53:A3 5.17578e-05
28 *6:39 *7:27 0
29 *6:39 *15:12 0
30 *6:39 *16:10 0
31 *38:A1 *38:A2 1.19142e-05
32 *41:B *38:A2 6.0406e-05
33 *56:D *48:A1 7.02617e-06
*RES
1 *37:ZN *6:8 12.2857 
2 *6:8 *38:A2 42.7143 
3 *6:8 *6:39 49 
4 *6:39 *48:A1 29.25 
5 *6:39 *53:A1 8.35714 
*END

*D_NET *7 0.00159704
*CONN
*I *50:A1 I *D NOR4_X1
*I *49:A1 I *D AND4_X1
*I *45:A1 I *D NOR3_X1
*I *44:A1 I *D AND3_X1
*I *42:A I *D XNOR2_X1
*I *39:Z O *D BUF_X2
*CAP
1 *50:A1 0
2 *49:A1 4.70667e-05
3 *45:A1 0
4 *44:A1 6.95462e-05
5 *42:A 2.34533e-05
6 *39:Z 8.73653e-05
7 *7:44 6.86452e-05
8 *7:31 0.000129427
9 *7:27 0.000367224
10 *7:8 0.00043974
11 *42:A *42:B 7.72537e-06
12 *42:A *43:A2 1.62377e-05
13 *44:A1 *44:A2 6.04034e-05
14 *44:A1 *45:A2 2.54476e-05
15 *44:A1 *8:25 1.66988e-05
16 *44:A1 *8:36 2.49497e-05
17 *49:A1 *45:A2 2.52965e-06
18 *49:A1 *49:A2 7.19036e-06
19 *49:A1 *49:A3 1.69265e-05
20 *49:A1 *25:51 7.34401e-06
21 *7:8 *42:B 5.52959e-06
22 *7:8 *31:43 0
23 *7:27 *50:A2 2.39679e-06
24 *7:27 *16:10 8.19965e-05
25 *7:31 *50:A2 1.68643e-06
26 *7:31 *50:A3 4.32144e-07
27 *7:31 *8:40 1.53342e-05
28 *7:31 *25:42 8.43215e-07
29 *7:31 *25:51 1.78638e-05
30 *7:44 *45:A2 4.18985e-05
31 *7:44 *49:A2 0
32 *38:A2 *42:A 8.26038e-06
33 *38:A2 *7:8 2.87703e-06
34 *6:39 *42:A 0
35 *6:39 *7:27 0
*RES
1 *39:Z *7:8 18.75 
2 *7:8 *42:A 13.0357 
3 *7:8 *7:27 41.5357 
4 *7:27 *7:31 9.75 
5 *7:31 *44:A1 19.3929 
6 *7:31 *7:44 2.96429 
7 *7:44 *45:A1 10 
8 *7:44 *49:A1 15.6786 
9 *7:27 *50:A1 5 
*END

*D_NET *8 0.00170704
*CONN
*I *45:A2 I *D NOR3_X1
*I *50:A2 I *D NOR4_X1
*I *49:A2 I *D AND4_X1
*I *44:A2 I *D AND3_X1
*I *41:A I *D XOR2_X1
*I *40:Z O *D BUF_X4
*CAP
1 *45:A2 2.76849e-05
2 *50:A2 4.74681e-06
3 *49:A2 3.77897e-05
4 *44:A2 3.82922e-05
5 *41:A 0
6 *40:Z 0.000169573
7 *8:40 6.62157e-05
8 *8:36 6.42213e-05
9 *8:25 0.000301192
10 *8:14 0.000419615
11 *44:A2 *44:A3 2.75346e-06
12 *44:A2 *50:A3 4.38801e-05
13 *44:A2 *25:42 0
14 *45:A2 *25:42 2.39679e-06
15 *45:A2 *25:51 7.19036e-06
16 *49:A2 *49:A3 7.19036e-06
17 *49:A2 *49:A4 5.03973e-05
18 *49:A2 *50:A4 5.48953e-05
19 *50:A2 *50:A3 4.97191e-06
20 *8:14 *54:CK 2.14856e-06
21 *8:14 *108:A 1.92086e-05
22 *8:14 *25:16 2.98502e-05
23 *8:14 *31:43 2.20864e-05
24 *8:25 *31:43 7.71861e-06
25 *8:40 *50:A3 3.90891e-05
26 *38:A1 *8:14 3.81999e-05
27 *38:A2 *8:14 4.16588e-06
28 *38:A2 *8:25 1.01609e-05
29 *44:A1 *44:A2 6.04034e-05
30 *44:A1 *45:A2 2.54476e-05
31 *44:A1 *8:25 1.66988e-05
32 *44:A1 *8:36 2.49497e-05
33 *49:A1 *45:A2 2.52965e-06
34 *49:A1 *49:A2 7.19036e-06
35 *54:D *8:14 3.28714e-05
36 *7:27 *50:A2 2.39679e-06
37 *7:31 *50:A2 1.68643e-06
38 *7:31 *8:40 1.53342e-05
39 *7:44 *45:A2 4.18985e-05
40 *7:44 *49:A2 0
*RES
1 *40:Z *8:14 26.7857 
2 *8:14 *41:A 5 
3 *8:14 *8:25 32.2857 
4 *8:25 *44:A2 16.25 
5 *8:25 *8:36 1.60714 
6 *8:36 *8:40 8.75 
7 *8:40 *49:A2 21.4286 
8 *8:40 *50:A2 5.75 
9 *8:36 *45:A2 14.3929 
*END

*D_NET *9 0.000309381
*CONN
*I *42:B I *D XNOR2_X1
*I *41:Z O *D XOR2_X1
*CAP
1 *42:B 0.000117506
2 *41:Z 0.000117506
3 *38:A2 *42:B 6.11143e-05
4 *42:A *42:B 7.72537e-06
5 *7:8 *42:B 5.52959e-06
*RES
1 *41:Z *42:B 24.25 
*END

*D_NET *10 0.000406618
*CONN
*I *43:A2 I *D NOR2_X1
*I *42:ZN O *D XNOR2_X1
*CAP
1 *43:A2 0.000188812
2 *42:ZN 0.000188812
3 *43:A2 *37:A 4.79202e-06
4 *43:A2 *43:A1 7.96507e-06
5 *43:A2 *31:43 0
6 *42:A *43:A2 1.62377e-05
7 *6:8 *43:A2 0
8 *6:39 *43:A2 0
*RES
1 *42:ZN *43:A2 39.6429 
*END

*D_NET *11 0.000358903
*CONN
*I *47:B1 I *D OAI21_X1
*I *46:A2 I *D OR3_X1
*I *44:ZN O *D AND3_X1
*CAP
1 *47:B1 6.66576e-05
2 *46:A2 1.76705e-05
3 *44:ZN 3.89482e-05
4 *11:10 0.000123276
5 *46:A2 *50:A3 2.39679e-06
6 *46:A2 *12:8 2.39679e-06
7 *46:A2 *25:42 3.55053e-06
8 *47:B1 *47:A 7.19036e-06
9 *47:B1 *48:A2 3.698e-05
10 *47:B1 *27:16 8.40608e-06
11 *11:10 *44:A3 8.43215e-07
12 *11:10 *25:42 4.34137e-05
13 *11:10 *27:16 2.76579e-06
14 *11:10 *27:20 7.14654e-07
15 *11:10 *31:24 3.6924e-06
*RES
1 *44:ZN *11:10 15.0714 
2 *11:10 *46:A2 12.25 
3 *11:10 *47:B1 19.2857 
*END

*D_NET *12 0.000235615
*CONN
*I *47:B2 I *D OAI21_X1
*I *46:A3 I *D OR3_X1
*I *45:ZN O *D NOR3_X1
*CAP
1 *47:B2 4.73677e-05
2 *46:A3 0
3 *45:ZN 4.41701e-05
4 *12:8 9.15378e-05
5 *12:8 *49:A3 3.83757e-05
6 *12:8 *50:A3 8.2465e-06
7 *12:8 *25:42 3.51992e-06
8 *46:A2 *12:8 2.39679e-06
*RES
1 *45:ZN *12:8 10.6786 
2 *12:8 *46:A3 5 
3 *12:8 *47:B2 10 
*END

*D_NET *13 0.000363013
*CONN
*I *48:A2 I *D AND3_X1
*I *46:ZN O *D OR3_X1
*CAP
1 *48:A2 7.13605e-05
2 *46:ZN 7.13605e-05
3 *48:A2 *27:12 7.3186e-05
4 *48:A2 *27:16 0.00010773
5 *47:B1 *48:A2 3.698e-05
6 *48:A1 *48:A2 2.39679e-06
*RES
1 *46:ZN *48:A2 31 
*END

*D_NET *14 0.000226764
*CONN
*I *48:A3 I *D AND3_X1
*I *47:ZN O *D OAI21_X1
*CAP
1 *48:A3 4.45924e-05
2 *47:ZN 4.45924e-05
3 *48:A3 *27:12 8.99929e-05
4 *48:A3 *27:16 2.92538e-05
5 *48:A3 *31:20 1.83321e-05
*RES
1 *47:ZN *48:A3 26.3571 
*END

*D_NET *15 0.000524826
*CONN
*I *52:B1 I *D OAI21_X1
*I *51:A2 I *D OR3_X1
*I *49:ZN O *D AND4_X1
*CAP
1 *52:B1 5.31487e-05
2 *51:A2 0
3 *49:ZN 0.000122654
4 *15:12 0.000175803
5 *52:B1 *51:A1 2.29131e-05
6 *52:B1 *51:A3 2.39679e-06
7 *52:B1 *52:B2 4.2564e-05
8 *15:12 *51:A1 2.79069e-06
9 *15:12 *51:A3 2.90848e-05
10 *15:12 *16:10 6.86795e-05
11 *48:A1 *52:B1 4.79202e-06
12 *6:39 *15:12 0
*RES
1 *49:ZN *15:12 28.25 
2 *15:12 *51:A2 5 
3 *15:12 *52:B1 12.8571 
*END

*D_NET *16 0.000686242
*CONN
*I *51:A3 I *D OR3_X1
*I *52:B2 I *D OAI21_X1
*I *50:ZN O *D NOR4_X1
*CAP
1 *51:A3 2.85959e-05
2 *52:B2 4.92838e-05
3 *50:ZN 0.000145562
4 *16:10 0.000223442
5 *52:B2 *51:A1 1.32348e-05
6 *48:A1 *51:A3 1.40196e-06
7 *52:B1 *51:A3 2.39679e-06
8 *52:B1 *52:B2 4.2564e-05
9 *6:39 *16:10 0
10 *7:27 *16:10 8.19965e-05
11 *15:12 *51:A3 2.90848e-05
12 *15:12 *16:10 6.86795e-05
*RES
1 *50:ZN *16:10 28.1786 
2 *16:10 *52:B2 16.25 
3 *16:10 *51:A3 13.0357 
*END

*D_NET *17 0.000160459
*CONN
*I *53:A2 I *D AND3_X1
*I *51:ZN O *D OR3_X1
*CAP
1 *53:A2 6.68324e-05
2 *51:ZN 6.68324e-05
3 *53:A2 *53:A3 1.87885e-05
4 *48:A1 *53:A2 2.83081e-06
5 *53:A1 *53:A2 2.51631e-06
6 *6:39 *53:A2 2.65899e-06
*RES
1 *51:ZN *53:A2 26.7143 
*END

*D_NET *18 0.000207619
*CONN
*I *53:A3 I *D AND3_X1
*I *52:ZN O *D OAI21_X1
*CAP
1 *53:A3 5.3102e-05
2 *52:ZN 5.3102e-05
3 *53:A3 *28:12 3.08688e-05
4 *53:A2 *53:A3 1.87885e-05
5 *6:39 *53:A3 5.17578e-05
*RES
1 *52:ZN *53:A3 26.9286 
*END

*D_NET *22 0.000550348
*CONN
*P i_clk I
*I *106:A I *D BUF_X1
*CAP
1 i_clk 0.000269589
2 *106:A 0.000269589
3 *106:A o_count[2] 0
4 *106:A *57:CK 1.91498e-06
5 *106:A *31:8 9.2552e-06
*RES
1 i_clk *106:A 38.6636 
*END

*D_NET *23 0.000613226
*CONN
*P i_rst I
*I *107:A I *D BUF_X1
*CAP
1 i_rst 0.000306613
2 *107:A 0.000306613
*RES
1 i_rst *107:A 40.3693 
*END

*D_NET *24 0.00129437
*CONN
*P i_up_down I
*I *40:A I *D BUF_X4
*CAP
1 i_up_down 0.000628428
2 *40:A 0.000628428
3 *40:A o_count[0] 3.75097e-05
*RES
1 i_up_down *40:A 47.6564 
*END

*D_NET *25 0.00218281
*CONN
*I *49:A4 I *D AND4_X1
*I *50:A4 I *D NOR4_X1
*I *45:A3 I *D NOR3_X1
*I *44:A3 I *D AND3_X1
*I *108:A I *D BUF_X1
*I *54:Q O *D DFF_X1
*CAP
1 *49:A4 3.81993e-05
2 *50:A4 4.3334e-05
3 *45:A3 0
4 *44:A3 1.60755e-05
5 *108:A 0.000305757
6 *54:Q 8.63717e-06
7 *25:51 0.000119943
8 *25:42 0.000122478
9 *25:27 0.000259665
10 *25:16 0.000457382
11 *25:8 0.000319783
12 *25:16 *31:24 2.2307e-06
13 *25:27 *31:24 8.52596e-05
14 *25:42 *49:A3 0
15 *25:42 *50:A3 9.6515e-06
16 *25:42 *31:24 1.39541e-05
17 *38:A1 *25:16 5.53343e-05
18 *44:A2 *44:A3 2.75346e-06
19 *44:A2 *25:42 0
20 *45:A2 *25:42 2.39679e-06
21 *45:A2 *25:51 7.19036e-06
22 *46:A2 *25:42 3.55053e-06
23 *49:A1 *25:51 7.34401e-06
24 *49:A2 *49:A4 5.03973e-05
25 *49:A2 *50:A4 5.48953e-05
26 *54:D *25:16 2.98125e-05
27 *1:8 *25:16 5.12453e-05
28 *7:31 *25:42 8.43215e-07
29 *7:31 *25:51 1.78638e-05
30 *8:14 *108:A 1.92086e-05
31 *8:14 *25:16 2.98502e-05
32 *11:10 *44:A3 8.43215e-07
33 *11:10 *25:42 4.34137e-05
34 *12:8 *25:42 3.51992e-06
*RES
1 *54:Q *25:8 10.75 
2 *25:8 *25:16 23.5 
3 *25:16 *108:A 36.4286 
4 *25:8 *25:27 20.6072 
5 *25:27 *44:A3 11.75 
6 *25:27 *25:42 15.8929 
7 *25:42 *45:A3 5 
8 *25:42 *25:51 9.75 
9 *25:51 *50:A4 14.3214 
10 *25:51 *49:A4 14.3214 
*END

*D_NET *26 0.0010832
*CONN
*I *109:A I *D BUF_X1
*I *39:A I *D BUF_X2
*I *55:Q O *D DFF_X1
*CAP
1 *109:A 5.51575e-05
2 *39:A 4.7596e-05
3 *55:Q 2.12277e-05
4 *26:21 0.000463137
5 *26:10 0.000476803
6 *39:A *31:43 1.08561e-05
7 *109:A o_count[1] 7.14654e-06
8 *26:21 *31:43 1.27666e-06
*RES
1 *55:Q *26:10 17.2857 
2 *26:10 *39:A 10.25 
3 *26:10 *26:21 45.75 
4 *26:21 *109:A 16.3571 
*END

*D_NET *27 0.00145138
*CONN
*I *110:A I *D BUF_X1
*I *47:A I *D OAI21_X1
*I *49:A3 I *D AND4_X1
*I *50:A3 I *D NOR4_X1
*I *46:A1 I *D OR3_X1
*I *56:Q O *D DFF_X1
*CAP
1 *110:A 8.71307e-06
2 *47:A 7.17197e-06
3 *49:A3 9.91084e-05
4 *50:A3 0.000121107
5 *46:A1 0
6 *56:Q 4.36382e-05
7 *27:20 0.000122674
8 *27:16 0.000142245
9 *27:12 0.000159703
10 *27:6 0.000163313
11 *49:A3 *31:20 2.13419e-05
12 *49:A3 *31:24 4.49583e-06
13 *50:A3 *31:20 1.60565e-06
14 *50:A3 *31:24 2.03613e-05
15 *27:6 *31:20 0
16 *27:12 *31:20 1.81046e-05
17 *27:16 *31:20 2.00103e-05
18 *27:20 *31:24 7.38601e-06
19 *44:A2 *50:A3 4.38801e-05
20 *46:A2 *50:A3 2.39679e-06
21 *47:B1 *47:A 7.19036e-06
22 *47:B1 *27:16 8.40608e-06
23 *48:A2 *27:12 7.3186e-05
24 *48:A2 *27:16 0.00010773
25 *48:A3 *27:12 8.99929e-05
26 *48:A3 *27:16 2.92538e-05
27 *49:A1 *49:A3 1.69265e-05
28 *49:A2 *49:A3 7.19036e-06
29 *50:A2 *50:A3 4.97191e-06
30 *7:31 *50:A3 4.32144e-07
31 *8:40 *50:A3 3.90891e-05
32 *11:10 *27:16 2.76579e-06
33 *11:10 *27:20 7.14654e-07
34 *12:8 *49:A3 3.83757e-05
35 *12:8 *50:A3 8.2465e-06
36 *25:42 *49:A3 0
37 *25:42 *50:A3 9.6515e-06
*RES
1 *56:Q *27:6 9.25 
2 *27:6 *27:12 20.25 
3 *27:12 *27:16 8.98215 
4 *27:16 *27:20 5.41071 
5 *27:20 *46:A1 5 
6 *27:20 *50:A3 30.5 
7 *27:16 *49:A3 22.875 
8 *27:12 *47:A 10.75 
9 *27:6 *110:A 5.92857 
*END

*D_NET *28 0.000931125
*CONN
*I *111:A I *D BUF_X1
*I *52:A I *D OAI21_X1
*I *51:A1 I *D OR3_X1
*I *57:Q O *D DFF_X1
*CAP
1 *111:A 6.45542e-05
2 *52:A 0
3 *51:A1 7.95148e-05
4 *57:Q 0
5 *28:12 0.000338245
6 *28:4 0.000323284
7 *28:12 *57:CK 0
8 *48:A1 *51:A1 6.48216e-07
9 *52:B1 *51:A1 2.29131e-05
10 *52:B2 *51:A1 1.32348e-05
11 *53:A1 *51:A1 2.30024e-06
12 *53:A3 *28:12 3.08688e-05
13 *57:D *28:12 3.1286e-05
14 *6:39 *51:A1 2.14847e-05
15 *15:12 *51:A1 2.79069e-06
*RES
1 *57:Q *28:4 5 
2 *28:4 *28:12 37.5357 
3 *28:12 *51:A1 23.1071 
4 *28:12 *52:A 5 
5 *28:4 *111:A 11.5357 
*END

*D_NET *31 0.00275033
*CONN
*I *57:CK I *D DFF_X1
*I *56:CK I *D DFF_X1
*I *55:CK I *D DFF_X1
*I *54:CK I *D DFF_X1
*I *106:Z O *D BUF_X1
*CAP
1 *57:CK 0.000252725
2 *56:CK 5.75778e-06
3 *55:CK 0
4 *54:CK 4.53379e-06
5 *106:Z 4.71707e-05
6 *31:43 0.000328911
7 *31:24 0.00057932
8 *31:20 0.000436624
9 *31:12 0.000273489
10 *31:8 0.000376879
11 *31:43 *37:A 1.34578e-05
12 *31:43 *43:A1 3.51536e-06
13 *38:A1 *31:24 5.56142e-06
14 *38:A2 *54:CK 7.72537e-06
15 *38:A2 *31:43 0.000119246
16 *39:A *31:43 1.08561e-05
17 *43:A2 *31:43 0
18 *48:A1 *31:20 0
19 *48:A3 *31:20 1.83321e-05
20 *49:A3 *31:20 2.13419e-05
21 *49:A3 *31:24 4.49583e-06
22 *50:A3 *31:20 1.60565e-06
23 *50:A3 *31:24 2.03613e-05
24 *55:D *31:43 0
25 *56:D *56:CK 1.27666e-06
26 *56:D *31:20 5.74951e-06
27 *57:D *57:CK 4.79658e-06
28 *106:A *57:CK 1.91498e-06
29 *106:A *31:8 9.2552e-06
30 *1:8 *31:24 1.15635e-05
31 *7:8 *31:43 0
32 *8:14 *54:CK 2.14856e-06
33 *8:14 *31:43 2.20864e-05
34 *8:25 *31:43 7.71861e-06
35 *11:10 *31:24 3.6924e-06
36 *25:16 *31:24 2.2307e-06
37 *25:27 *31:24 8.52596e-05
38 *25:42 *31:24 1.39541e-05
39 *26:21 *31:43 1.27666e-06
40 *27:6 *31:20 0
41 *27:12 *31:20 1.81046e-05
42 *27:16 *31:20 2.00103e-05
43 *27:20 *31:24 7.38601e-06
44 *28:12 *57:CK 0
*RES
1 *106:Z *31:8 14.3214 
2 *31:8 *31:12 13.3929 
3 *31:12 *31:20 27.0536 
4 *31:20 *31:24 35.9464 
5 *31:24 *54:CK 5.75 
6 *31:24 *31:43 48.7143 
7 *31:43 *55:CK 5 
8 *31:12 *56:CK 5.75 
9 *31:8 *57:CK 35.25 
*END

*D_NET *32 0.000921676
*CONN
*I *37:A I *D INV_X1
*I *43:A1 I *D NOR2_X1
*I *107:Z O *D BUF_X1
*CAP
1 *37:A 4.45736e-05
2 *43:A1 1.15737e-05
3 *107:Z 0
4 *32:8 0.000445973
5 *32:6 0.000389826
6 *43:A2 *37:A 4.79202e-06
7 *43:A2 *43:A1 7.96507e-06
8 *31:43 *37:A 1.34578e-05
9 *31:43 *43:A1 3.51536e-06
*RES
1 *107:Z *32:6 10 
2 *32:6 *32:8 41.6429 
3 *32:8 *43:A1 11.75 
4 *32:8 *37:A 14.8571 
*END

*D_NET *33 0.00045111
*CONN
*P o_count[0] O
*I *108:Z O *D BUF_X1
*CAP
1 o_count[0] 0.0002068
2 *108:Z 0.0002068
3 *40:A o_count[0] 3.75097e-05
*RES
1 *108:Z o_count[0] 32.1036 
*END

*D_NET *34 0.000402835
*CONN
*P o_count[1] O
*I *109:Z O *D BUF_X1
*CAP
1 o_count[1] 0.000197844
2 *109:Z 0.000197844
3 *109:A o_count[1] 7.14654e-06
*RES
1 *109:Z o_count[1] 32.1579 
*END

*D_NET *35 0.000644694
*CONN
*P o_count[2] O
*I *110:Z O *D BUF_X1
*CAP
1 o_count[2] 0.000322347
2 *110:Z 0.000322347
3 *106:A o_count[2] 0
*RES
1 *110:Z o_count[2] 40.5664 
*END

*D_NET *36 0.000453269
*CONN
*P o_count[3] O
*I *111:Z O *D BUF_X1
*CAP
1 o_count[3] 0.000226634
2 *111:Z 0.000226634
*RES
1 *111:Z o_count[3] 34.7564 
*END
